/*--------------------------------*- C++ -*----------------------------------*\
  =========                 |
  \\      /  F ield         | OpenFOAM: The Open Source CFD Toolbox
   \\    /   O peration     | Website:  https://openfoam.org
    \\  /    A nd           | Version:  8
     \\/     M anipulation  |
\*---------------------------------------------------------------------------*/
FoamFile
{
    version     2.0;
    format      ascii;
    class       dictionary;
    location    "system";
    object      fvSchemes;
}
// * * * * * * * * * * * * * * * * * * * * * * * * * * * * * * * * * * * * * //

//fluxScheme      Kurganov;

ddtSchemes
{
    default         Euler;
}

gradSchemes
{
    default         Gauss linear;
}

divSchemes
{

    div(phi,alpha)  Gauss vanLeer ;

    div(rhoPhi,U)  Gauss upwind;
    div(rhoPhi,T)  Gauss upwind;
    div(rhoPhi,K)  Gauss upwind;
    div(phi,p)      Gauss upwind;
    div(phi,k)      Gauss upwind;
    
    div(rhoPhi,omega) Gauss upwind;
    div(rhoPhi,k) Gauss upwind;
 
    div(((rho*nuEff)*dev2(T(grad(U))))) Gauss linear;

    
    div(phid1,p_rgh) Gauss upwind;
    div(phid2,p_rgh) Gauss upwind;
    //div(((thermo:rho*nuEff)*dev2(T(grad(U))))) Gauss linear upwind;
 
   

}

laplacianSchemes
{
    default         Gauss linear corrected;
}

interpolationSchemes
{
    default         linear;
}

snGradSchemes
{
    default         uncorrected;
}

wallDist
{
    method meshWave;
}

// ************************************************************************* //
