/*--------------------------------*- C++ -*----------------------------------*\
  =========                 |
  \\      /  F ield         | OpenFOAM: The Open Source CFD Toolbox
   \\    /   O peration     | Website:  https://openfoam.org
    \\  /    A nd           | Version:  8
     \\/     M anipulation  |
\*---------------------------------------------------------------------------*/
FoamFile
{
    version     2.0;
    format      ascii;
    class       dictionary;
    location    "system";
    object      fvSolution;
}
// * * * * * * * * * * * * * * * * * * * * * * * * * * * * * * * * * * * * * //

solvers


{
    "alpha.*"
    {
        nAlphaCorr      1;
        nAlphaSubCycles 1;
        cAlpha          1;
        
        reconstructionScheme isoAlpha;
         vof2IsoTol 1e-8;
        surfCellTol 1e-6;
        nAlphaBounds    3;
        snapTol         1e-12;
        clip            true;
    }

    "pcorr.*"
    {
        solver          PCG;
        preconditioner
        {
            preconditioner  GAMG;
            tolerance       1e-05;
            relTol          0;
            smoother        DICGaussSeidel;
        }
        tolerance       1e-05;
        relTol          0;
        maxIter         100;
    }

    ".*(rho|rhoFinal)"
    {
        solver          diagonal;
    }

    p_rgh
    /*{
        solver          GAMG;
        tolerance       1e-10;
        relTol          0.001;
        //smoother        DIC;
        smoother DILU;
    }*/
    {
        solver          GAMG;
        tolerance       1e-8;
        relTol          0;
        smoother        DILUGaussSeidel;
        cacheAgglomeration          true;
        agglomerator        faceAreaPair;
        mergeLevels         1;  
        // nCellsInCoarsestLevel       2000;
    }

    p_rghFinal
    {
        $p_rgh;
        relTol          0;
    }
    /*{
        solver          PCG;
        preconditioner
        {
            preconditioner  GAMG;
            tolerance       1e-07;
            relTol          0;
            nVcycles        2;
            smoother        DICGaussSeidel;
            nPreSweeps      2;
        }
        tolerance       1e-10;
        relTol          0;
        maxIter         50;
    }
   {
        solver          PCG;
        preconditioner
        {
            preconditioner  GAMG;
            tolerance       1e-07;
            relTol          0;
            nVcycles        2;
            smoother        DICGaussSeidel;
            nPreSweeps      2;
        }
        tolerance       1e-10;
        relTol          0;
        maxIter         50;
    }*/

   /* U
    {
        solver          PBiCGStab;
        preconditioner  DILU;
        tolerance       1e-06;
        relTol          0;
        nSweeps         1;
    }

*/
    UFinal
    {
        solver          smoothSolver;
        smoother        GaussSeidel;
        tolerance       1e-06;
        relTol          0;
        nSweeps         1;
    }

    "(T|k|B|nuTilda).*"
    {
        solver          smoothSolver;
        smoother        symGaussSeidel;
        tolerance       1e-08;
        relTol          0.01;
        limit   yes;
        min 0;
    }

}

PIMPLE
{
    momentumPredictor no;
    transonic       yes;
    nOuterCorrectors 6;
    nCorrectors     3;
    nAlphaCorr 1;
    nNonOrthogonalCorrectors 0;
}

relaxationFactors
{
    fields
    {
        
    }
    
    equations
    {
       "U.*"     0.4; 
       "p.*" 0.4;
       "T.*" 0.01;
    }
}


// ************************************************************************* //
