/*--------------------------------*- C++ -*----------------------------------*\
| =========                 |                                                 |
| \\      /  F ield         | OpenFOAM: The Open Source CFD Toolbox           |
|  \\    /   O peration     | Version:  2306                                  |
|   \\  /    A nd           | Website:  www.openfoam.com                      |
|    \\/     M anipulation  |                                                 |
\*---------------------------------------------------------------------------*/
FoamFile
{
    version     2.0;
    format      ascii;
    arch        "LSB;label=32;scalar=64";
    class       polyBoundaryMesh;
    location    "constant/polyMesh";
    object      boundary;
}
// * * * * * * * * * * * * * * * * * * * * * * * * * * * * * * * * * * * * * //

6
(
    bottom
    {
        type            patch;
        nFaces          23100;
        startFace       26390220;
    }
    side
    {
        type            patch;
        nFaces          47880;
        startFace       26413320;
    }
    topInner
    {
        type            patch;
        nFaces          13360;
        startFace       26461200;
    }
    topOuter
    {
        type            patch;
        nFaces          17040;
        startFace       26474560;
    }
    gasIn
    {
        type            patch;
        nFaces          960;
        startFace       26491600;
    }
    liqIn
    {
        type            patch;
        nFaces          1220;
        startFace       26492560;
    }
)

// ************************************************************************* //
